LTspice 24.1.5 for Windows
Circuit: C:\Users\stefa\Documents\GitHub\SPICE\FlyBack Converter\Flyback Converter  IRF510.net
Start Time: Fri Apr  4 09:45:39 2025
solver = Normal
Maximum thread count: 32
tnom = 27
temp = 27
method = Gear
Direct Newton iteration for .op point succeeded.
Total elapsed time: 3.171 seconds.

Files loaded:
C:\Users\stefa\Documents\GitHub\SPICE\FlyBack Converter\Flyback Converter  IRF510.net
C:\Users\stefa\AppData\Local\LTspice\lib\cmp\standard.dio
C:\Users\stefa\AppData\Local\LTspice\lib\cmp\standard.mos

