LTspice 24.1.5 for Windows
Circuit: G:\Il mio Drive\00 UNIBS\MAGISTRALE\ANNO 2 - 2° semestre\ELETTRONICA DI POTENZA\Esercitazioni\Buck Converter\Buck Converter.net
Start Time: Fri Mar 21 11:12:12 2025
solver = Normal
Maximum thread count: 4
tnom = 27
temp = 27
method = Gear
Direct Newton iteration for .op point succeeded.
Total elapsed time: 1.430 seconds.

Files loaded:
G:\Il mio Drive\00 UNIBS\MAGISTRALE\ANNO 2 - 2° semestre\ELETTRONICA DI POTENZA\Esercitazioni\Buck Converter\Buck Converter.net
C:\Users\stefa\AppData\Local\LTspice\lib\cmp\standard.dio
C:\Users\stefa\AppData\Local\LTspice\lib\cmp\standard.mos

